
*** ChampSim Multicore Out-of-Order Simulator ***

